k23/sourcebus_11000.130_1438/Lines.dss
New Line.L48563_37702_37703 Units=km Length=0.081 bus1=37703.1.2.3 bus2=37702.1.2.3 switch=n enabled=y phases=3 Linecode=3P_Code2
New Line.L48564_37703_37708 Units=km Length=0.016 bus1=37708.1.2.3 bus2=37703.1.2.3 switch=n enabled=y phases=3 Linecode=3P_Code2
New Line.L48565_37705_37704 Units=km Length=0.025 bus1=37704.1.2.3 bus2=37705.1.2.3 switch=n enabled=y phases=3 Linecode=3P_Code3
New Line.L48566_37706_37705 Units=km Length=0.036000000000000004 bus1=37705.1.2.3 bus2=37706.1.2.3 switch=n enabled=y phases=3 Linecode=3P_Code3
New Line.L48567_37707_37706 Units=km Length=0.043000000000000003 bus1=37706.1.2.3 bus2=37707.1.2.3 switch=n enabled=y phases=3 Linecode=3P_Code3
New Line.L48568_37708_37707 Units=km Length=0.05 bus1=37707.1.2.3 bus2=37708.1.2.3 switch=n enabled=y phases=3 Linecode=3P_Code3
New Line.L48569_37708_37709 Units=km Length=0.024 bus1=37709.1.2.3 bus2=37708.1.2.3 switch=n enabled=y phases=3 Linecode=3P_OH_Code1
New Line.L48570_37709_37721 Units=km Length=0.047 bus1=37721.1.2.3 bus2=37709.1.2.3 switch=n enabled=y phases=3 Linecode=3P_OH_Code1
New Line.L48574_37715_37714 Units=km Length=0.043000000000000003 bus1=37714.1.2.3 bus2=37715.1.2.3 switch=n enabled=y phases=3 Linecode=3P_OH_Code1
New Line.L48575_37716_37715 Units=km Length=0.048 bus1=37715.1.2.3 bus2=37716.1.2.3 switch=n enabled=y phases=3 Linecode=3P_OH_Code1
New Line.L48576_37717_37716 Units=km Length=0.041 bus1=37716.1.2.3 bus2=37717.1.2.3 switch=n enabled=y phases=3 Linecode=3P_OH_Code1
New Line.L48577_37718_37717 Units=km Length=0.043000000000000003 bus1=37717.1.2.3 bus2=37718.1.2.3 switch=n enabled=y phases=3 Linecode=3P_OH_Code1
New Line.L48578_37719_37718 Units=km Length=0.031 bus1=37718.1.2.3 bus2=37719.1.2.3 switch=n enabled=y phases=3 Linecode=3P_OH_Code1
New Line.L48579_37720_37719 Units=km Length=0.038 bus1=37719.1.2.3 bus2=37720.1.2.3 switch=n enabled=y phases=3 Linecode=3P_OH_Code1
New Line.L48580_37721_37720 Units=km Length=0.041 bus1=37720.1.2.3 bus2=37721.1.2.3 switch=n enabled=y phases=3 Linecode=3P_OH_Code1
New Line.L48581_37721_37722 Units=km Length=0.027 bus1=37722.1.2.3 bus2=37721.1.2.3 switch=n enabled=y phases=3 Linecode=3P_OH_Code0
New Line.L48582_37722_37724 Units=km Length=0.026000000000000002 bus1=37724.1.2.3 bus2=37722.1.2.3 switch=n enabled=y phases=3 Linecode=3P_OH_Code0
New Line.L48583_37724_37723 Units=km Length=0.031 bus1=37723.1.2.3 bus2=37724.1.2.3 switch=n enabled=y phases=3 Linecode=3P_OH_Code0
